** gc array model

.TEMP 25.0
.OPTION
+ ARTIST=2
+ INGOLD=2
+ PARHIER=LOCAL
+ PSF=2
+ ACCURATE=1
+ POST=2

.HDL "osfet_potential_based_compact_model_v0.va"
.INC "../model_card/rfet_params_v0.inc"
.INC "../model_card/wfet_params_v0.inc"

.PARAM vdd = 0.9
.PARAM vss = 0
.PARAM vpp = 1.2
.PARAM vnn = 0
.PARAM Rwwl = 100
.PARAM Cwwl = 1e-15
.PARAM Rwbl = 100
.PARAM Cwbl = 1e-15
.PARAM Rrwl = 100
.PARAM Crwl = 1e-15
.PARAM Rrbl = 100
.PARAM Crbl = 1e-15
.PARAM sim_time = 40e-9
.PARAM timestep = 1e-12
.SUBCKT wos_ros_gc wwl wbl rwl rbl sn

    xos wbl wwl sn osfet
    + W=W_write mu_eff=mu_eff_write Lch=Lch_write Cgch=Cgch_write Cpar=Cpar_write longVT=longVT_write alpha1=alpha1_write alpha2=alpha2_write meff=meff_write
    + rsd_mode=rsd_mode_write Rs0=Rs0_write Rd0=Rd0_write delta=delta_write rollVT=rollVT_write n0=n0_write nd=nd_write type=type_write

    xosr rbl sn rwl osfet
    + W=W_read mu_eff=mu_eff_read Lch=Lch_read Cgch=Cgch_read Cpar=Cpar_read longVT=longVT_read alpha1=alpha1_read alpha2=alpha2_read meff=meff_read
    + rsd_mode=rsd_mode_read Rs0=Rs0_read Rd0=Rd0_read delta=delta_read rollVT=rollVT_read n0=n0_read nd=nd_read type=type_read

.ENDS

.SUBCKT rc_unit rc_in rc_out R0=1e2 C0=1e-15

    r_unit rc_in rc_out R=R0
    c_unit rc_out 0 C=C0

.ENDS rc_unit
.DCVOLT sn_0_0 '0*vdd + 1*vss'
.DCVOLT sn_0_1 '0*vdd + 1*vss'
.DCVOLT sn_0_2 '0*vdd + 1*vss'
.DCVOLT sn_0_3 '0*vdd + 1*vss'
.DCVOLT sn_0_4 '0*vdd + 1*vss'
.DCVOLT sn_0_5 '0*vdd + 1*vss'
.DCVOLT sn_0_6 '0*vdd + 1*vss'
.DCVOLT sn_0_7 '0*vdd + 1*vss'
.DCVOLT sn_0_8 '0*vdd + 1*vss'
.DCVOLT sn_0_9 '0*vdd + 1*vss'
.DCVOLT sn_0_10 '0*vdd + 1*vss'
.DCVOLT sn_0_11 '0*vdd + 1*vss'
.DCVOLT sn_0_12 '0*vdd + 1*vss'
.DCVOLT sn_0_13 '0*vdd + 1*vss'
.DCVOLT sn_0_14 '0*vdd + 1*vss'
.DCVOLT sn_0_15 '0*vdd + 1*vss'
.DCVOLT sn_0_16 '0*vdd + 1*vss'
.DCVOLT sn_0_17 '0*vdd + 1*vss'
.DCVOLT sn_0_18 '0*vdd + 1*vss'
.DCVOLT sn_0_19 '0*vdd + 1*vss'
.DCVOLT sn_0_20 '0*vdd + 1*vss'
.DCVOLT sn_0_21 '0*vdd + 1*vss'
.DCVOLT sn_0_22 '0*vdd + 1*vss'
.DCVOLT sn_0_23 '0*vdd + 1*vss'
.DCVOLT sn_0_24 '0*vdd + 1*vss'
.DCVOLT sn_0_25 '0*vdd + 1*vss'
.DCVOLT sn_0_26 '0*vdd + 1*vss'
.DCVOLT sn_0_27 '0*vdd + 1*vss'
.DCVOLT sn_0_28 '0*vdd + 1*vss'
.DCVOLT sn_0_29 '0*vdd + 1*vss'
.DCVOLT sn_0_30 '0*vdd + 1*vss'
.DCVOLT sn_0_31 '0*vdd + 1*vss'
.DCVOLT sn_1_0 '0*vdd + 1*vss'
.DCVOLT sn_1_1 '0*vdd + 1*vss'
.DCVOLT sn_1_2 '0*vdd + 1*vss'
.DCVOLT sn_1_3 '0*vdd + 1*vss'
.DCVOLT sn_1_4 '0*vdd + 1*vss'
.DCVOLT sn_1_5 '0*vdd + 1*vss'
.DCVOLT sn_1_6 '0*vdd + 1*vss'
.DCVOLT sn_1_7 '0*vdd + 1*vss'
.DCVOLT sn_1_8 '0*vdd + 1*vss'
.DCVOLT sn_1_9 '0*vdd + 1*vss'
.DCVOLT sn_1_10 '0*vdd + 1*vss'
.DCVOLT sn_1_11 '0*vdd + 1*vss'
.DCVOLT sn_1_12 '0*vdd + 1*vss'
.DCVOLT sn_1_13 '0*vdd + 1*vss'
.DCVOLT sn_1_14 '0*vdd + 1*vss'
.DCVOLT sn_1_15 '0*vdd + 1*vss'
.DCVOLT sn_1_16 '0*vdd + 1*vss'
.DCVOLT sn_1_17 '0*vdd + 1*vss'
.DCVOLT sn_1_18 '0*vdd + 1*vss'
.DCVOLT sn_1_19 '0*vdd + 1*vss'
.DCVOLT sn_1_20 '0*vdd + 1*vss'
.DCVOLT sn_1_21 '0*vdd + 1*vss'
.DCVOLT sn_1_22 '0*vdd + 1*vss'
.DCVOLT sn_1_23 '0*vdd + 1*vss'
.DCVOLT sn_1_24 '0*vdd + 1*vss'
.DCVOLT sn_1_25 '0*vdd + 1*vss'
.DCVOLT sn_1_26 '0*vdd + 1*vss'
.DCVOLT sn_1_27 '0*vdd + 1*vss'
.DCVOLT sn_1_28 '0*vdd + 1*vss'
.DCVOLT sn_1_29 '0*vdd + 1*vss'
.DCVOLT sn_1_30 '0*vdd + 1*vss'
.DCVOLT sn_1_31 '0*vdd + 1*vss'
.DCVOLT sn_2_0 '0*vdd + 1*vss'
.DCVOLT sn_2_1 '0*vdd + 1*vss'
.DCVOLT sn_2_2 '0*vdd + 1*vss'
.DCVOLT sn_2_3 '0*vdd + 1*vss'
.DCVOLT sn_2_4 '0*vdd + 1*vss'
.DCVOLT sn_2_5 '0*vdd + 1*vss'
.DCVOLT sn_2_6 '0*vdd + 1*vss'
.DCVOLT sn_2_7 '0*vdd + 1*vss'
.DCVOLT sn_2_8 '0*vdd + 1*vss'
.DCVOLT sn_2_9 '0*vdd + 1*vss'
.DCVOLT sn_2_10 '0*vdd + 1*vss'
.DCVOLT sn_2_11 '0*vdd + 1*vss'
.DCVOLT sn_2_12 '0*vdd + 1*vss'
.DCVOLT sn_2_13 '0*vdd + 1*vss'
.DCVOLT sn_2_14 '0*vdd + 1*vss'
.DCVOLT sn_2_15 '0*vdd + 1*vss'
.DCVOLT sn_2_16 '0*vdd + 1*vss'
.DCVOLT sn_2_17 '0*vdd + 1*vss'
.DCVOLT sn_2_18 '0*vdd + 1*vss'
.DCVOLT sn_2_19 '0*vdd + 1*vss'
.DCVOLT sn_2_20 '0*vdd + 1*vss'
.DCVOLT sn_2_21 '0*vdd + 1*vss'
.DCVOLT sn_2_22 '0*vdd + 1*vss'
.DCVOLT sn_2_23 '0*vdd + 1*vss'
.DCVOLT sn_2_24 '0*vdd + 1*vss'
.DCVOLT sn_2_25 '0*vdd + 1*vss'
.DCVOLT sn_2_26 '0*vdd + 1*vss'
.DCVOLT sn_2_27 '0*vdd + 1*vss'
.DCVOLT sn_2_28 '0*vdd + 1*vss'
.DCVOLT sn_2_29 '0*vdd + 1*vss'
.DCVOLT sn_2_30 '0*vdd + 1*vss'
.DCVOLT sn_2_31 '0*vdd + 1*vss'
.DCVOLT sn_3_0 '0*vdd + 1*vss'
.DCVOLT sn_3_1 '0*vdd + 1*vss'
.DCVOLT sn_3_2 '0*vdd + 1*vss'
.DCVOLT sn_3_3 '0*vdd + 1*vss'
.DCVOLT sn_3_4 '0*vdd + 1*vss'
.DCVOLT sn_3_5 '0*vdd + 1*vss'
.DCVOLT sn_3_6 '0*vdd + 1*vss'
.DCVOLT sn_3_7 '0*vdd + 1*vss'
.DCVOLT sn_3_8 '0*vdd + 1*vss'
.DCVOLT sn_3_9 '0*vdd + 1*vss'
.DCVOLT sn_3_10 '0*vdd + 1*vss'
.DCVOLT sn_3_11 '0*vdd + 1*vss'
.DCVOLT sn_3_12 '0*vdd + 1*vss'
.DCVOLT sn_3_13 '0*vdd + 1*vss'
.DCVOLT sn_3_14 '0*vdd + 1*vss'
.DCVOLT sn_3_15 '0*vdd + 1*vss'
.DCVOLT sn_3_16 '0*vdd + 1*vss'
.DCVOLT sn_3_17 '0*vdd + 1*vss'
.DCVOLT sn_3_18 '0*vdd + 1*vss'
.DCVOLT sn_3_19 '0*vdd + 1*vss'
.DCVOLT sn_3_20 '0*vdd + 1*vss'
.DCVOLT sn_3_21 '0*vdd + 1*vss'
.DCVOLT sn_3_22 '0*vdd + 1*vss'
.DCVOLT sn_3_23 '0*vdd + 1*vss'
.DCVOLT sn_3_24 '0*vdd + 1*vss'
.DCVOLT sn_3_25 '0*vdd + 1*vss'
.DCVOLT sn_3_26 '0*vdd + 1*vss'
.DCVOLT sn_3_27 '0*vdd + 1*vss'
.DCVOLT sn_3_28 '0*vdd + 1*vss'
.DCVOLT sn_3_29 '0*vdd + 1*vss'
.DCVOLT sn_3_30 '0*vdd + 1*vss'
.DCVOLT sn_3_31 '0*vdd + 1*vss'
.DCVOLT sn_4_0 '0*vdd + 1*vss'
.DCVOLT sn_4_1 '0*vdd + 1*vss'
.DCVOLT sn_4_2 '0*vdd + 1*vss'
.DCVOLT sn_4_3 '0*vdd + 1*vss'
.DCVOLT sn_4_4 '0*vdd + 1*vss'
.DCVOLT sn_4_5 '0*vdd + 1*vss'
.DCVOLT sn_4_6 '0*vdd + 1*vss'
.DCVOLT sn_4_7 '0*vdd + 1*vss'
.DCVOLT sn_4_8 '0*vdd + 1*vss'
.DCVOLT sn_4_9 '0*vdd + 1*vss'
.DCVOLT sn_4_10 '0*vdd + 1*vss'
.DCVOLT sn_4_11 '0*vdd + 1*vss'
.DCVOLT sn_4_12 '0*vdd + 1*vss'
.DCVOLT sn_4_13 '0*vdd + 1*vss'
.DCVOLT sn_4_14 '0*vdd + 1*vss'
.DCVOLT sn_4_15 '0*vdd + 1*vss'
.DCVOLT sn_4_16 '0*vdd + 1*vss'
.DCVOLT sn_4_17 '0*vdd + 1*vss'
.DCVOLT sn_4_18 '0*vdd + 1*vss'
.DCVOLT sn_4_19 '0*vdd + 1*vss'
.DCVOLT sn_4_20 '0*vdd + 1*vss'
.DCVOLT sn_4_21 '0*vdd + 1*vss'
.DCVOLT sn_4_22 '0*vdd + 1*vss'
.DCVOLT sn_4_23 '0*vdd + 1*vss'
.DCVOLT sn_4_24 '0*vdd + 1*vss'
.DCVOLT sn_4_25 '0*vdd + 1*vss'
.DCVOLT sn_4_26 '0*vdd + 1*vss'
.DCVOLT sn_4_27 '0*vdd + 1*vss'
.DCVOLT sn_4_28 '0*vdd + 1*vss'
.DCVOLT sn_4_29 '0*vdd + 1*vss'
.DCVOLT sn_4_30 '0*vdd + 1*vss'
.DCVOLT sn_4_31 '0*vdd + 1*vss'
.DCVOLT sn_5_0 '0*vdd + 1*vss'
.DCVOLT sn_5_1 '0*vdd + 1*vss'
.DCVOLT sn_5_2 '0*vdd + 1*vss'
.DCVOLT sn_5_3 '0*vdd + 1*vss'
.DCVOLT sn_5_4 '0*vdd + 1*vss'
.DCVOLT sn_5_5 '0*vdd + 1*vss'
.DCVOLT sn_5_6 '0*vdd + 1*vss'
.DCVOLT sn_5_7 '0*vdd + 1*vss'
.DCVOLT sn_5_8 '0*vdd + 1*vss'
.DCVOLT sn_5_9 '0*vdd + 1*vss'
.DCVOLT sn_5_10 '0*vdd + 1*vss'
.DCVOLT sn_5_11 '0*vdd + 1*vss'
.DCVOLT sn_5_12 '0*vdd + 1*vss'
.DCVOLT sn_5_13 '0*vdd + 1*vss'
.DCVOLT sn_5_14 '0*vdd + 1*vss'
.DCVOLT sn_5_15 '0*vdd + 1*vss'
.DCVOLT sn_5_16 '0*vdd + 1*vss'
.DCVOLT sn_5_17 '0*vdd + 1*vss'
.DCVOLT sn_5_18 '0*vdd + 1*vss'
.DCVOLT sn_5_19 '0*vdd + 1*vss'
.DCVOLT sn_5_20 '0*vdd + 1*vss'
.DCVOLT sn_5_21 '0*vdd + 1*vss'
.DCVOLT sn_5_22 '0*vdd + 1*vss'
.DCVOLT sn_5_23 '0*vdd + 1*vss'
.DCVOLT sn_5_24 '0*vdd + 1*vss'
.DCVOLT sn_5_25 '0*vdd + 1*vss'
.DCVOLT sn_5_26 '0*vdd + 1*vss'
.DCVOLT sn_5_27 '0*vdd + 1*vss'
.DCVOLT sn_5_28 '0*vdd + 1*vss'
.DCVOLT sn_5_29 '0*vdd + 1*vss'
.DCVOLT sn_5_30 '0*vdd + 1*vss'
.DCVOLT sn_5_31 '0*vdd + 1*vss'
.DCVOLT sn_6_0 '0*vdd + 1*vss'
.DCVOLT sn_6_1 '0*vdd + 1*vss'
.DCVOLT sn_6_2 '0*vdd + 1*vss'
.DCVOLT sn_6_3 '0*vdd + 1*vss'
.DCVOLT sn_6_4 '0*vdd + 1*vss'
.DCVOLT sn_6_5 '0*vdd + 1*vss'
.DCVOLT sn_6_6 '0*vdd + 1*vss'
.DCVOLT sn_6_7 '0*vdd + 1*vss'
.DCVOLT sn_6_8 '0*vdd + 1*vss'
.DCVOLT sn_6_9 '0*vdd + 1*vss'
.DCVOLT sn_6_10 '0*vdd + 1*vss'
.DCVOLT sn_6_11 '0*vdd + 1*vss'
.DCVOLT sn_6_12 '0*vdd + 1*vss'
.DCVOLT sn_6_13 '0*vdd + 1*vss'
.DCVOLT sn_6_14 '0*vdd + 1*vss'
.DCVOLT sn_6_15 '0*vdd + 1*vss'
.DCVOLT sn_6_16 '0*vdd + 1*vss'
.DCVOLT sn_6_17 '0*vdd + 1*vss'
.DCVOLT sn_6_18 '0*vdd + 1*vss'
.DCVOLT sn_6_19 '0*vdd + 1*vss'
.DCVOLT sn_6_20 '0*vdd + 1*vss'
.DCVOLT sn_6_21 '0*vdd + 1*vss'
.DCVOLT sn_6_22 '0*vdd + 1*vss'
.DCVOLT sn_6_23 '0*vdd + 1*vss'
.DCVOLT sn_6_24 '0*vdd + 1*vss'
.DCVOLT sn_6_25 '0*vdd + 1*vss'
.DCVOLT sn_6_26 '0*vdd + 1*vss'
.DCVOLT sn_6_27 '0*vdd + 1*vss'
.DCVOLT sn_6_28 '0*vdd + 1*vss'
.DCVOLT sn_6_29 '0*vdd + 1*vss'
.DCVOLT sn_6_30 '0*vdd + 1*vss'
.DCVOLT sn_6_31 '0*vdd + 1*vss'
.DCVOLT sn_7_0 '0*vdd + 1*vss'
.DCVOLT sn_7_1 '0*vdd + 1*vss'
.DCVOLT sn_7_2 '0*vdd + 1*vss'
.DCVOLT sn_7_3 '0*vdd + 1*vss'
.DCVOLT sn_7_4 '0*vdd + 1*vss'
.DCVOLT sn_7_5 '0*vdd + 1*vss'
.DCVOLT sn_7_6 '0*vdd + 1*vss'
.DCVOLT sn_7_7 '0*vdd + 1*vss'
.DCVOLT sn_7_8 '0*vdd + 1*vss'
.DCVOLT sn_7_9 '0*vdd + 1*vss'
.DCVOLT sn_7_10 '0*vdd + 1*vss'
.DCVOLT sn_7_11 '0*vdd + 1*vss'
.DCVOLT sn_7_12 '0*vdd + 1*vss'
.DCVOLT sn_7_13 '0*vdd + 1*vss'
.DCVOLT sn_7_14 '0*vdd + 1*vss'
.DCVOLT sn_7_15 '0*vdd + 1*vss'
.DCVOLT sn_7_16 '0*vdd + 1*vss'
.DCVOLT sn_7_17 '0*vdd + 1*vss'
.DCVOLT sn_7_18 '0*vdd + 1*vss'
.DCVOLT sn_7_19 '0*vdd + 1*vss'
.DCVOLT sn_7_20 '0*vdd + 1*vss'
.DCVOLT sn_7_21 '0*vdd + 1*vss'
.DCVOLT sn_7_22 '0*vdd + 1*vss'
.DCVOLT sn_7_23 '0*vdd + 1*vss'
.DCVOLT sn_7_24 '0*vdd + 1*vss'
.DCVOLT sn_7_25 '0*vdd + 1*vss'
.DCVOLT sn_7_26 '0*vdd + 1*vss'
.DCVOLT sn_7_27 '0*vdd + 1*vss'
.DCVOLT sn_7_28 '0*vdd + 1*vss'
.DCVOLT sn_7_29 '0*vdd + 1*vss'
.DCVOLT sn_7_30 '0*vdd + 1*vss'
.DCVOLT sn_7_31 '0*vdd + 1*vss'
.DCVOLT sn_8_0 '0*vdd + 1*vss'
.DCVOLT sn_8_1 '0*vdd + 1*vss'
.DCVOLT sn_8_2 '0*vdd + 1*vss'
.DCVOLT sn_8_3 '0*vdd + 1*vss'
.DCVOLT sn_8_4 '0*vdd + 1*vss'
.DCVOLT sn_8_5 '0*vdd + 1*vss'
.DCVOLT sn_8_6 '0*vdd + 1*vss'
.DCVOLT sn_8_7 '0*vdd + 1*vss'
.DCVOLT sn_8_8 '0*vdd + 1*vss'
.DCVOLT sn_8_9 '0*vdd + 1*vss'
.DCVOLT sn_8_10 '0*vdd + 1*vss'
.DCVOLT sn_8_11 '0*vdd + 1*vss'
.DCVOLT sn_8_12 '0*vdd + 1*vss'
.DCVOLT sn_8_13 '0*vdd + 1*vss'
.DCVOLT sn_8_14 '0*vdd + 1*vss'
.DCVOLT sn_8_15 '0*vdd + 1*vss'
.DCVOLT sn_8_16 '0*vdd + 1*vss'
.DCVOLT sn_8_17 '0*vdd + 1*vss'
.DCVOLT sn_8_18 '0*vdd + 1*vss'
.DCVOLT sn_8_19 '0*vdd + 1*vss'
.DCVOLT sn_8_20 '0*vdd + 1*vss'
.DCVOLT sn_8_21 '0*vdd + 1*vss'
.DCVOLT sn_8_22 '0*vdd + 1*vss'
.DCVOLT sn_8_23 '0*vdd + 1*vss'
.DCVOLT sn_8_24 '0*vdd + 1*vss'
.DCVOLT sn_8_25 '0*vdd + 1*vss'
.DCVOLT sn_8_26 '0*vdd + 1*vss'
.DCVOLT sn_8_27 '0*vdd + 1*vss'
.DCVOLT sn_8_28 '0*vdd + 1*vss'
.DCVOLT sn_8_29 '0*vdd + 1*vss'
.DCVOLT sn_8_30 '0*vdd + 1*vss'
.DCVOLT sn_8_31 '0*vdd + 1*vss'
.DCVOLT sn_9_0 '0*vdd + 1*vss'
.DCVOLT sn_9_1 '0*vdd + 1*vss'
.DCVOLT sn_9_2 '0*vdd + 1*vss'
.DCVOLT sn_9_3 '0*vdd + 1*vss'
.DCVOLT sn_9_4 '0*vdd + 1*vss'
.DCVOLT sn_9_5 '0*vdd + 1*vss'
.DCVOLT sn_9_6 '0*vdd + 1*vss'
.DCVOLT sn_9_7 '0*vdd + 1*vss'
.DCVOLT sn_9_8 '0*vdd + 1*vss'
.DCVOLT sn_9_9 '0*vdd + 1*vss'
.DCVOLT sn_9_10 '0*vdd + 1*vss'
.DCVOLT sn_9_11 '0*vdd + 1*vss'
.DCVOLT sn_9_12 '0*vdd + 1*vss'
.DCVOLT sn_9_13 '0*vdd + 1*vss'
.DCVOLT sn_9_14 '0*vdd + 1*vss'
.DCVOLT sn_9_15 '0*vdd + 1*vss'
.DCVOLT sn_9_16 '0*vdd + 1*vss'
.DCVOLT sn_9_17 '0*vdd + 1*vss'
.DCVOLT sn_9_18 '0*vdd + 1*vss'
.DCVOLT sn_9_19 '0*vdd + 1*vss'
.DCVOLT sn_9_20 '0*vdd + 1*vss'
.DCVOLT sn_9_21 '0*vdd + 1*vss'
.DCVOLT sn_9_22 '0*vdd + 1*vss'
.DCVOLT sn_9_23 '0*vdd + 1*vss'
.DCVOLT sn_9_24 '0*vdd + 1*vss'
.DCVOLT sn_9_25 '0*vdd + 1*vss'
.DCVOLT sn_9_26 '0*vdd + 1*vss'
.DCVOLT sn_9_27 '0*vdd + 1*vss'
.DCVOLT sn_9_28 '0*vdd + 1*vss'
.DCVOLT sn_9_29 '0*vdd + 1*vss'
.DCVOLT sn_9_30 '0*vdd + 1*vss'
.DCVOLT sn_9_31 '0*vdd + 1*vss'
.DCVOLT sn_10_0 '0*vdd + 1*vss'
.DCVOLT sn_10_1 '0*vdd + 1*vss'
.DCVOLT sn_10_2 '0*vdd + 1*vss'
.DCVOLT sn_10_3 '0*vdd + 1*vss'
.DCVOLT sn_10_4 '0*vdd + 1*vss'
.DCVOLT sn_10_5 '0*vdd + 1*vss'
.DCVOLT sn_10_6 '0*vdd + 1*vss'
.DCVOLT sn_10_7 '0*vdd + 1*vss'
.DCVOLT sn_10_8 '0*vdd + 1*vss'
.DCVOLT sn_10_9 '0*vdd + 1*vss'
.DCVOLT sn_10_10 '0*vdd + 1*vss'
.DCVOLT sn_10_11 '0*vdd + 1*vss'
.DCVOLT sn_10_12 '0*vdd + 1*vss'
.DCVOLT sn_10_13 '0*vdd + 1*vss'
.DCVOLT sn_10_14 '0*vdd + 1*vss'
.DCVOLT sn_10_15 '0*vdd + 1*vss'
.DCVOLT sn_10_16 '0*vdd + 1*vss'
.DCVOLT sn_10_17 '0*vdd + 1*vss'
.DCVOLT sn_10_18 '0*vdd + 1*vss'
.DCVOLT sn_10_19 '0*vdd + 1*vss'
.DCVOLT sn_10_20 '0*vdd + 1*vss'
.DCVOLT sn_10_21 '0*vdd + 1*vss'
.DCVOLT sn_10_22 '0*vdd + 1*vss'
.DCVOLT sn_10_23 '0*vdd + 1*vss'
.DCVOLT sn_10_24 '0*vdd + 1*vss'
.DCVOLT sn_10_25 '0*vdd + 1*vss'
.DCVOLT sn_10_26 '0*vdd + 1*vss'
.DCVOLT sn_10_27 '0*vdd + 1*vss'
.DCVOLT sn_10_28 '0*vdd + 1*vss'
.DCVOLT sn_10_29 '0*vdd + 1*vss'
.DCVOLT sn_10_30 '0*vdd + 1*vss'
.DCVOLT sn_10_31 '0*vdd + 1*vss'
.DCVOLT sn_11_0 '0*vdd + 1*vss'
.DCVOLT sn_11_1 '0*vdd + 1*vss'
.DCVOLT sn_11_2 '0*vdd + 1*vss'
.DCVOLT sn_11_3 '0*vdd + 1*vss'
.DCVOLT sn_11_4 '0*vdd + 1*vss'
.DCVOLT sn_11_5 '0*vdd + 1*vss'
.DCVOLT sn_11_6 '0*vdd + 1*vss'
.DCVOLT sn_11_7 '0*vdd + 1*vss'
.DCVOLT sn_11_8 '0*vdd + 1*vss'
.DCVOLT sn_11_9 '0*vdd + 1*vss'
.DCVOLT sn_11_10 '0*vdd + 1*vss'
.DCVOLT sn_11_11 '0*vdd + 1*vss'
.DCVOLT sn_11_12 '0*vdd + 1*vss'
.DCVOLT sn_11_13 '0*vdd + 1*vss'
.DCVOLT sn_11_14 '0*vdd + 1*vss'
.DCVOLT sn_11_15 '0*vdd + 1*vss'
.DCVOLT sn_11_16 '0*vdd + 1*vss'
.DCVOLT sn_11_17 '0*vdd + 1*vss'
.DCVOLT sn_11_18 '0*vdd + 1*vss'
.DCVOLT sn_11_19 '0*vdd + 1*vss'
.DCVOLT sn_11_20 '0*vdd + 1*vss'
.DCVOLT sn_11_21 '0*vdd + 1*vss'
.DCVOLT sn_11_22 '0*vdd + 1*vss'
.DCVOLT sn_11_23 '0*vdd + 1*vss'
.DCVOLT sn_11_24 '0*vdd + 1*vss'
.DCVOLT sn_11_25 '0*vdd + 1*vss'
.DCVOLT sn_11_26 '0*vdd + 1*vss'
.DCVOLT sn_11_27 '0*vdd + 1*vss'
.DCVOLT sn_11_28 '0*vdd + 1*vss'
.DCVOLT sn_11_29 '0*vdd + 1*vss'
.DCVOLT sn_11_30 '0*vdd + 1*vss'
.DCVOLT sn_11_31 '0*vdd + 1*vss'
.DCVOLT sn_12_0 '0*vdd + 1*vss'
.DCVOLT sn_12_1 '0*vdd + 1*vss'
.DCVOLT sn_12_2 '0*vdd + 1*vss'
.DCVOLT sn_12_3 '0*vdd + 1*vss'
.DCVOLT sn_12_4 '0*vdd + 1*vss'
.DCVOLT sn_12_5 '0*vdd + 1*vss'
.DCVOLT sn_12_6 '0*vdd + 1*vss'
.DCVOLT sn_12_7 '0*vdd + 1*vss'
.DCVOLT sn_12_8 '0*vdd + 1*vss'
.DCVOLT sn_12_9 '0*vdd + 1*vss'
.DCVOLT sn_12_10 '0*vdd + 1*vss'
.DCVOLT sn_12_11 '0*vdd + 1*vss'
.DCVOLT sn_12_12 '0*vdd + 1*vss'
.DCVOLT sn_12_13 '0*vdd + 1*vss'
.DCVOLT sn_12_14 '0*vdd + 1*vss'
.DCVOLT sn_12_15 '0*vdd + 1*vss'
.DCVOLT sn_12_16 '0*vdd + 1*vss'
.DCVOLT sn_12_17 '0*vdd + 1*vss'
.DCVOLT sn_12_18 '0*vdd + 1*vss'
.DCVOLT sn_12_19 '0*vdd + 1*vss'
.DCVOLT sn_12_20 '0*vdd + 1*vss'
.DCVOLT sn_12_21 '0*vdd + 1*vss'
.DCVOLT sn_12_22 '0*vdd + 1*vss'
.DCVOLT sn_12_23 '0*vdd + 1*vss'
.DCVOLT sn_12_24 '0*vdd + 1*vss'
.DCVOLT sn_12_25 '0*vdd + 1*vss'
.DCVOLT sn_12_26 '0*vdd + 1*vss'
.DCVOLT sn_12_27 '0*vdd + 1*vss'
.DCVOLT sn_12_28 '0*vdd + 1*vss'
.DCVOLT sn_12_29 '0*vdd + 1*vss'
.DCVOLT sn_12_30 '0*vdd + 1*vss'
.DCVOLT sn_12_31 '0*vdd + 1*vss'
.DCVOLT sn_13_0 '0*vdd + 1*vss'
.DCVOLT sn_13_1 '0*vdd + 1*vss'
.DCVOLT sn_13_2 '0*vdd + 1*vss'
.DCVOLT sn_13_3 '0*vdd + 1*vss'
.DCVOLT sn_13_4 '0*vdd + 1*vss'
.DCVOLT sn_13_5 '0*vdd + 1*vss'
.DCVOLT sn_13_6 '0*vdd + 1*vss'
.DCVOLT sn_13_7 '0*vdd + 1*vss'
.DCVOLT sn_13_8 '0*vdd + 1*vss'
.DCVOLT sn_13_9 '0*vdd + 1*vss'
.DCVOLT sn_13_10 '0*vdd + 1*vss'
.DCVOLT sn_13_11 '0*vdd + 1*vss'
.DCVOLT sn_13_12 '0*vdd + 1*vss'
.DCVOLT sn_13_13 '0*vdd + 1*vss'
.DCVOLT sn_13_14 '0*vdd + 1*vss'
.DCVOLT sn_13_15 '0*vdd + 1*vss'
.DCVOLT sn_13_16 '0*vdd + 1*vss'
.DCVOLT sn_13_17 '0*vdd + 1*vss'
.DCVOLT sn_13_18 '0*vdd + 1*vss'
.DCVOLT sn_13_19 '0*vdd + 1*vss'
.DCVOLT sn_13_20 '0*vdd + 1*vss'
.DCVOLT sn_13_21 '0*vdd + 1*vss'
.DCVOLT sn_13_22 '0*vdd + 1*vss'
.DCVOLT sn_13_23 '0*vdd + 1*vss'
.DCVOLT sn_13_24 '0*vdd + 1*vss'
.DCVOLT sn_13_25 '0*vdd + 1*vss'
.DCVOLT sn_13_26 '0*vdd + 1*vss'
.DCVOLT sn_13_27 '0*vdd + 1*vss'
.DCVOLT sn_13_28 '0*vdd + 1*vss'
.DCVOLT sn_13_29 '0*vdd + 1*vss'
.DCVOLT sn_13_30 '0*vdd + 1*vss'
.DCVOLT sn_13_31 '0*vdd + 1*vss'
.DCVOLT sn_14_0 '0*vdd + 1*vss'
.DCVOLT sn_14_1 '0*vdd + 1*vss'
.DCVOLT sn_14_2 '0*vdd + 1*vss'
.DCVOLT sn_14_3 '0*vdd + 1*vss'
.DCVOLT sn_14_4 '0*vdd + 1*vss'
.DCVOLT sn_14_5 '0*vdd + 1*vss'
.DCVOLT sn_14_6 '0*vdd + 1*vss'
.DCVOLT sn_14_7 '0*vdd + 1*vss'
.DCVOLT sn_14_8 '0*vdd + 1*vss'
.DCVOLT sn_14_9 '0*vdd + 1*vss'
.DCVOLT sn_14_10 '0*vdd + 1*vss'
.DCVOLT sn_14_11 '0*vdd + 1*vss'
.DCVOLT sn_14_12 '0*vdd + 1*vss'
.DCVOLT sn_14_13 '0*vdd + 1*vss'
.DCVOLT sn_14_14 '0*vdd + 1*vss'
.DCVOLT sn_14_15 '0*vdd + 1*vss'
.DCVOLT sn_14_16 '0*vdd + 1*vss'
.DCVOLT sn_14_17 '0*vdd + 1*vss'
.DCVOLT sn_14_18 '0*vdd + 1*vss'
.DCVOLT sn_14_19 '0*vdd + 1*vss'
.DCVOLT sn_14_20 '0*vdd + 1*vss'
.DCVOLT sn_14_21 '0*vdd + 1*vss'
.DCVOLT sn_14_22 '0*vdd + 1*vss'
.DCVOLT sn_14_23 '0*vdd + 1*vss'
.DCVOLT sn_14_24 '0*vdd + 1*vss'
.DCVOLT sn_14_25 '0*vdd + 1*vss'
.DCVOLT sn_14_26 '0*vdd + 1*vss'
.DCVOLT sn_14_27 '0*vdd + 1*vss'
.DCVOLT sn_14_28 '0*vdd + 1*vss'
.DCVOLT sn_14_29 '0*vdd + 1*vss'
.DCVOLT sn_14_30 '0*vdd + 1*vss'
.DCVOLT sn_14_31 '0*vdd + 1*vss'
.DCVOLT sn_15_0 '0*vdd + 1*vss'
.DCVOLT sn_15_1 '0*vdd + 1*vss'
.DCVOLT sn_15_2 '0*vdd + 1*vss'
.DCVOLT sn_15_3 '0*vdd + 1*vss'
.DCVOLT sn_15_4 '0*vdd + 1*vss'
.DCVOLT sn_15_5 '0*vdd + 1*vss'
.DCVOLT sn_15_6 '0*vdd + 1*vss'
.DCVOLT sn_15_7 '0*vdd + 1*vss'
.DCVOLT sn_15_8 '0*vdd + 1*vss'
.DCVOLT sn_15_9 '0*vdd + 1*vss'
.DCVOLT sn_15_10 '0*vdd + 1*vss'
.DCVOLT sn_15_11 '0*vdd + 1*vss'
.DCVOLT sn_15_12 '0*vdd + 1*vss'
.DCVOLT sn_15_13 '0*vdd + 1*vss'
.DCVOLT sn_15_14 '0*vdd + 1*vss'
.DCVOLT sn_15_15 '0*vdd + 1*vss'
.DCVOLT sn_15_16 '0*vdd + 1*vss'
.DCVOLT sn_15_17 '0*vdd + 1*vss'
.DCVOLT sn_15_18 '0*vdd + 1*vss'
.DCVOLT sn_15_19 '0*vdd + 1*vss'
.DCVOLT sn_15_20 '0*vdd + 1*vss'
.DCVOLT sn_15_21 '0*vdd + 1*vss'
.DCVOLT sn_15_22 '0*vdd + 1*vss'
.DCVOLT sn_15_23 '0*vdd + 1*vss'
.DCVOLT sn_15_24 '0*vdd + 1*vss'
.DCVOLT sn_15_25 '0*vdd + 1*vss'
.DCVOLT sn_15_26 '0*vdd + 1*vss'
.DCVOLT sn_15_27 '0*vdd + 1*vss'
.DCVOLT sn_15_28 '0*vdd + 1*vss'
.DCVOLT sn_15_29 '0*vdd + 1*vss'
.DCVOLT sn_15_30 '0*vdd + 1*vss'
.DCVOLT sn_15_31 '0*vdd + 1*vss'
.DCVOLT sn_16_0 '0*vdd + 1*vss'
.DCVOLT sn_16_1 '0*vdd + 1*vss'
.DCVOLT sn_16_2 '0*vdd + 1*vss'
.DCVOLT sn_16_3 '0*vdd + 1*vss'
.DCVOLT sn_16_4 '0*vdd + 1*vss'
.DCVOLT sn_16_5 '0*vdd + 1*vss'
.DCVOLT sn_16_6 '0*vdd + 1*vss'
.DCVOLT sn_16_7 '0*vdd + 1*vss'
.DCVOLT sn_16_8 '0*vdd + 1*vss'
.DCVOLT sn_16_9 '0*vdd + 1*vss'
.DCVOLT sn_16_10 '0*vdd + 1*vss'
.DCVOLT sn_16_11 '0*vdd + 1*vss'
.DCVOLT sn_16_12 '0*vdd + 1*vss'
.DCVOLT sn_16_13 '0*vdd + 1*vss'
.DCVOLT sn_16_14 '0*vdd + 1*vss'
.DCVOLT sn_16_15 '0*vdd + 1*vss'
.DCVOLT sn_16_16 '0*vdd + 1*vss'
.DCVOLT sn_16_17 '0*vdd + 1*vss'
.DCVOLT sn_16_18 '0*vdd + 1*vss'
.DCVOLT sn_16_19 '0*vdd + 1*vss'
.DCVOLT sn_16_20 '0*vdd + 1*vss'
.DCVOLT sn_16_21 '0*vdd + 1*vss'
.DCVOLT sn_16_22 '0*vdd + 1*vss'
.DCVOLT sn_16_23 '0*vdd + 1*vss'
.DCVOLT sn_16_24 '0*vdd + 1*vss'
.DCVOLT sn_16_25 '0*vdd + 1*vss'
.DCVOLT sn_16_26 '0*vdd + 1*vss'
.DCVOLT sn_16_27 '0*vdd + 1*vss'
.DCVOLT sn_16_28 '0*vdd + 1*vss'
.DCVOLT sn_16_29 '0*vdd + 1*vss'
.DCVOLT sn_16_30 '0*vdd + 1*vss'
.DCVOLT sn_16_31 '0*vdd + 1*vss'
.DCVOLT sn_17_0 '0*vdd + 1*vss'
.DCVOLT sn_17_1 '0*vdd + 1*vss'
.DCVOLT sn_17_2 '0*vdd + 1*vss'
.DCVOLT sn_17_3 '0*vdd + 1*vss'
.DCVOLT sn_17_4 '0*vdd + 1*vss'
.DCVOLT sn_17_5 '0*vdd + 1*vss'
.DCVOLT sn_17_6 '0*vdd + 1*vss'
.DCVOLT sn_17_7 '0*vdd + 1*vss'
.DCVOLT sn_17_8 '0*vdd + 1*vss'
.DCVOLT sn_17_9 '0*vdd + 1*vss'
.DCVOLT sn_17_10 '0*vdd + 1*vss'
.DCVOLT sn_17_11 '0*vdd + 1*vss'
.DCVOLT sn_17_12 '0*vdd + 1*vss'
.DCVOLT sn_17_13 '0*vdd + 1*vss'
.DCVOLT sn_17_14 '0*vdd + 1*vss'
.DCVOLT sn_17_15 '0*vdd + 1*vss'
.DCVOLT sn_17_16 '0*vdd + 1*vss'
.DCVOLT sn_17_17 '0*vdd + 1*vss'
.DCVOLT sn_17_18 '0*vdd + 1*vss'
.DCVOLT sn_17_19 '0*vdd + 1*vss'
.DCVOLT sn_17_20 '0*vdd + 1*vss'
.DCVOLT sn_17_21 '0*vdd + 1*vss'
.DCVOLT sn_17_22 '0*vdd + 1*vss'
.DCVOLT sn_17_23 '0*vdd + 1*vss'
.DCVOLT sn_17_24 '0*vdd + 1*vss'
.DCVOLT sn_17_25 '0*vdd + 1*vss'
.DCVOLT sn_17_26 '0*vdd + 1*vss'
.DCVOLT sn_17_27 '0*vdd + 1*vss'
.DCVOLT sn_17_28 '0*vdd + 1*vss'
.DCVOLT sn_17_29 '0*vdd + 1*vss'
.DCVOLT sn_17_30 '0*vdd + 1*vss'
.DCVOLT sn_17_31 '0*vdd + 1*vss'
.DCVOLT sn_18_0 '0*vdd + 1*vss'
.DCVOLT sn_18_1 '0*vdd + 1*vss'
.DCVOLT sn_18_2 '0*vdd + 1*vss'
.DCVOLT sn_18_3 '0*vdd + 1*vss'
.DCVOLT sn_18_4 '0*vdd + 1*vss'
.DCVOLT sn_18_5 '0*vdd + 1*vss'
.DCVOLT sn_18_6 '0*vdd + 1*vss'
.DCVOLT sn_18_7 '0*vdd + 1*vss'
.DCVOLT sn_18_8 '0*vdd + 1*vss'
.DCVOLT sn_18_9 '0*vdd + 1*vss'
.DCVOLT sn_18_10 '0*vdd + 1*vss'
.DCVOLT sn_18_11 '0*vdd + 1*vss'
.DCVOLT sn_18_12 '0*vdd + 1*vss'
.DCVOLT sn_18_13 '0*vdd + 1*vss'
.DCVOLT sn_18_14 '0*vdd + 1*vss'
.DCVOLT sn_18_15 '0*vdd + 1*vss'
.DCVOLT sn_18_16 '0*vdd + 1*vss'
.DCVOLT sn_18_17 '0*vdd + 1*vss'
.DCVOLT sn_18_18 '0*vdd + 1*vss'
.DCVOLT sn_18_19 '0*vdd + 1*vss'
.DCVOLT sn_18_20 '0*vdd + 1*vss'
.DCVOLT sn_18_21 '0*vdd + 1*vss'
.DCVOLT sn_18_22 '0*vdd + 1*vss'
.DCVOLT sn_18_23 '0*vdd + 1*vss'
.DCVOLT sn_18_24 '0*vdd + 1*vss'
.DCVOLT sn_18_25 '0*vdd + 1*vss'
.DCVOLT sn_18_26 '0*vdd + 1*vss'
.DCVOLT sn_18_27 '0*vdd + 1*vss'
.DCVOLT sn_18_28 '0*vdd + 1*vss'
.DCVOLT sn_18_29 '0*vdd + 1*vss'
.DCVOLT sn_18_30 '0*vdd + 1*vss'
.DCVOLT sn_18_31 '0*vdd + 1*vss'
.DCVOLT sn_19_0 '0*vdd + 1*vss'
.DCVOLT sn_19_1 '0*vdd + 1*vss'
.DCVOLT sn_19_2 '0*vdd + 1*vss'
.DCVOLT sn_19_3 '0*vdd + 1*vss'
.DCVOLT sn_19_4 '0*vdd + 1*vss'
.DCVOLT sn_19_5 '0*vdd + 1*vss'
.DCVOLT sn_19_6 '0*vdd + 1*vss'
.DCVOLT sn_19_7 '0*vdd + 1*vss'
.DCVOLT sn_19_8 '0*vdd + 1*vss'
.DCVOLT sn_19_9 '0*vdd + 1*vss'
.DCVOLT sn_19_10 '0*vdd + 1*vss'
.DCVOLT sn_19_11 '0*vdd + 1*vss'
.DCVOLT sn_19_12 '0*vdd + 1*vss'
.DCVOLT sn_19_13 '0*vdd + 1*vss'
.DCVOLT sn_19_14 '0*vdd + 1*vss'
.DCVOLT sn_19_15 '0*vdd + 1*vss'
.DCVOLT sn_19_16 '0*vdd + 1*vss'
.DCVOLT sn_19_17 '0*vdd + 1*vss'
.DCVOLT sn_19_18 '0*vdd + 1*vss'
.DCVOLT sn_19_19 '0*vdd + 1*vss'
.DCVOLT sn_19_20 '0*vdd + 1*vss'
.DCVOLT sn_19_21 '0*vdd + 1*vss'
.DCVOLT sn_19_22 '0*vdd + 1*vss'
.DCVOLT sn_19_23 '0*vdd + 1*vss'
.DCVOLT sn_19_24 '0*vdd + 1*vss'
.DCVOLT sn_19_25 '0*vdd + 1*vss'
.DCVOLT sn_19_26 '0*vdd + 1*vss'
.DCVOLT sn_19_27 '0*vdd + 1*vss'
.DCVOLT sn_19_28 '0*vdd + 1*vss'
.DCVOLT sn_19_29 '0*vdd + 1*vss'
.DCVOLT sn_19_30 '0*vdd + 1*vss'
.DCVOLT sn_19_31 '0*vdd + 1*vss'
.DCVOLT sn_20_0 '0*vdd + 1*vss'
.DCVOLT sn_20_1 '0*vdd + 1*vss'
.DCVOLT sn_20_2 '0*vdd + 1*vss'
.DCVOLT sn_20_3 '0*vdd + 1*vss'
.DCVOLT sn_20_4 '0*vdd + 1*vss'
.DCVOLT sn_20_5 '0*vdd + 1*vss'
.DCVOLT sn_20_6 '0*vdd + 1*vss'
.DCVOLT sn_20_7 '0*vdd + 1*vss'
.DCVOLT sn_20_8 '0*vdd + 1*vss'
.DCVOLT sn_20_9 '0*vdd + 1*vss'
.DCVOLT sn_20_10 '0*vdd + 1*vss'
.DCVOLT sn_20_11 '0*vdd + 1*vss'
.DCVOLT sn_20_12 '0*vdd + 1*vss'
.DCVOLT sn_20_13 '0*vdd + 1*vss'
.DCVOLT sn_20_14 '0*vdd + 1*vss'
.DCVOLT sn_20_15 '0*vdd + 1*vss'
.DCVOLT sn_20_16 '0*vdd + 1*vss'
.DCVOLT sn_20_17 '0*vdd + 1*vss'
.DCVOLT sn_20_18 '0*vdd + 1*vss'
.DCVOLT sn_20_19 '0*vdd + 1*vss'
.DCVOLT sn_20_20 '0*vdd + 1*vss'
.DCVOLT sn_20_21 '0*vdd + 1*vss'
.DCVOLT sn_20_22 '0*vdd + 1*vss'
.DCVOLT sn_20_23 '0*vdd + 1*vss'
.DCVOLT sn_20_24 '0*vdd + 1*vss'
.DCVOLT sn_20_25 '0*vdd + 1*vss'
.DCVOLT sn_20_26 '0*vdd + 1*vss'
.DCVOLT sn_20_27 '0*vdd + 1*vss'
.DCVOLT sn_20_28 '0*vdd + 1*vss'
.DCVOLT sn_20_29 '0*vdd + 1*vss'
.DCVOLT sn_20_30 '0*vdd + 1*vss'
.DCVOLT sn_20_31 '0*vdd + 1*vss'
.DCVOLT sn_21_0 '0*vdd + 1*vss'
.DCVOLT sn_21_1 '0*vdd + 1*vss'
.DCVOLT sn_21_2 '0*vdd + 1*vss'
.DCVOLT sn_21_3 '0*vdd + 1*vss'
.DCVOLT sn_21_4 '0*vdd + 1*vss'
.DCVOLT sn_21_5 '0*vdd + 1*vss'
.DCVOLT sn_21_6 '0*vdd + 1*vss'
.DCVOLT sn_21_7 '0*vdd + 1*vss'
.DCVOLT sn_21_8 '0*vdd + 1*vss'
.DCVOLT sn_21_9 '0*vdd + 1*vss'
.DCVOLT sn_21_10 '0*vdd + 1*vss'
.DCVOLT sn_21_11 '0*vdd + 1*vss'
.DCVOLT sn_21_12 '0*vdd + 1*vss'
.DCVOLT sn_21_13 '0*vdd + 1*vss'
.DCVOLT sn_21_14 '0*vdd + 1*vss'
.DCVOLT sn_21_15 '0*vdd + 1*vss'
.DCVOLT sn_21_16 '0*vdd + 1*vss'
.DCVOLT sn_21_17 '0*vdd + 1*vss'
.DCVOLT sn_21_18 '0*vdd + 1*vss'
.DCVOLT sn_21_19 '0*vdd + 1*vss'
.DCVOLT sn_21_20 '0*vdd + 1*vss'
.DCVOLT sn_21_21 '0*vdd + 1*vss'
.DCVOLT sn_21_22 '0*vdd + 1*vss'
.DCVOLT sn_21_23 '0*vdd + 1*vss'
.DCVOLT sn_21_24 '0*vdd + 1*vss'
.DCVOLT sn_21_25 '0*vdd + 1*vss'
.DCVOLT sn_21_26 '0*vdd + 1*vss'
.DCVOLT sn_21_27 '0*vdd + 1*vss'
.DCVOLT sn_21_28 '0*vdd + 1*vss'
.DCVOLT sn_21_29 '0*vdd + 1*vss'
.DCVOLT sn_21_30 '0*vdd + 1*vss'
.DCVOLT sn_21_31 '0*vdd + 1*vss'
.DCVOLT sn_22_0 '0*vdd + 1*vss'
.DCVOLT sn_22_1 '0*vdd + 1*vss'
.DCVOLT sn_22_2 '0*vdd + 1*vss'
.DCVOLT sn_22_3 '0*vdd + 1*vss'
.DCVOLT sn_22_4 '0*vdd + 1*vss'
.DCVOLT sn_22_5 '0*vdd + 1*vss'
.DCVOLT sn_22_6 '0*vdd + 1*vss'
.DCVOLT sn_22_7 '0*vdd + 1*vss'
.DCVOLT sn_22_8 '0*vdd + 1*vss'
.DCVOLT sn_22_9 '0*vdd + 1*vss'
.DCVOLT sn_22_10 '0*vdd + 1*vss'
.DCVOLT sn_22_11 '0*vdd + 1*vss'
.DCVOLT sn_22_12 '0*vdd + 1*vss'
.DCVOLT sn_22_13 '0*vdd + 1*vss'
.DCVOLT sn_22_14 '0*vdd + 1*vss'
.DCVOLT sn_22_15 '0*vdd + 1*vss'
.DCVOLT sn_22_16 '0*vdd + 1*vss'
.DCVOLT sn_22_17 '0*vdd + 1*vss'
.DCVOLT sn_22_18 '0*vdd + 1*vss'
.DCVOLT sn_22_19 '0*vdd + 1*vss'
.DCVOLT sn_22_20 '0*vdd + 1*vss'
.DCVOLT sn_22_21 '0*vdd + 1*vss'
.DCVOLT sn_22_22 '0*vdd + 1*vss'
.DCVOLT sn_22_23 '0*vdd + 1*vss'
.DCVOLT sn_22_24 '0*vdd + 1*vss'
.DCVOLT sn_22_25 '0*vdd + 1*vss'
.DCVOLT sn_22_26 '0*vdd + 1*vss'
.DCVOLT sn_22_27 '0*vdd + 1*vss'
.DCVOLT sn_22_28 '0*vdd + 1*vss'
.DCVOLT sn_22_29 '0*vdd + 1*vss'
.DCVOLT sn_22_30 '0*vdd + 1*vss'
.DCVOLT sn_22_31 '0*vdd + 1*vss'
.DCVOLT sn_23_0 '0*vdd + 1*vss'
.DCVOLT sn_23_1 '0*vdd + 1*vss'
.DCVOLT sn_23_2 '0*vdd + 1*vss'
.DCVOLT sn_23_3 '0*vdd + 1*vss'
.DCVOLT sn_23_4 '0*vdd + 1*vss'
.DCVOLT sn_23_5 '0*vdd + 1*vss'
.DCVOLT sn_23_6 '0*vdd + 1*vss'
.DCVOLT sn_23_7 '0*vdd + 1*vss'
.DCVOLT sn_23_8 '0*vdd + 1*vss'
.DCVOLT sn_23_9 '0*vdd + 1*vss'
.DCVOLT sn_23_10 '0*vdd + 1*vss'
.DCVOLT sn_23_11 '0*vdd + 1*vss'
.DCVOLT sn_23_12 '0*vdd + 1*vss'
.DCVOLT sn_23_13 '0*vdd + 1*vss'
.DCVOLT sn_23_14 '0*vdd + 1*vss'
.DCVOLT sn_23_15 '0*vdd + 1*vss'
.DCVOLT sn_23_16 '0*vdd + 1*vss'
.DCVOLT sn_23_17 '0*vdd + 1*vss'
.DCVOLT sn_23_18 '0*vdd + 1*vss'
.DCVOLT sn_23_19 '0*vdd + 1*vss'
.DCVOLT sn_23_20 '0*vdd + 1*vss'
.DCVOLT sn_23_21 '0*vdd + 1*vss'
.DCVOLT sn_23_22 '0*vdd + 1*vss'
.DCVOLT sn_23_23 '0*vdd + 1*vss'
.DCVOLT sn_23_24 '0*vdd + 1*vss'
.DCVOLT sn_23_25 '0*vdd + 1*vss'
.DCVOLT sn_23_26 '0*vdd + 1*vss'
.DCVOLT sn_23_27 '0*vdd + 1*vss'
.DCVOLT sn_23_28 '0*vdd + 1*vss'
.DCVOLT sn_23_29 '0*vdd + 1*vss'
.DCVOLT sn_23_30 '0*vdd + 1*vss'
.DCVOLT sn_23_31 '0*vdd + 1*vss'
.DCVOLT sn_24_0 '0*vdd + 1*vss'
.DCVOLT sn_24_1 '0*vdd + 1*vss'
.DCVOLT sn_24_2 '0*vdd + 1*vss'
.DCVOLT sn_24_3 '0*vdd + 1*vss'
.DCVOLT sn_24_4 '0*vdd + 1*vss'
.DCVOLT sn_24_5 '0*vdd + 1*vss'
.DCVOLT sn_24_6 '0*vdd + 1*vss'
.DCVOLT sn_24_7 '0*vdd + 1*vss'
.DCVOLT sn_24_8 '0*vdd + 1*vss'
.DCVOLT sn_24_9 '0*vdd + 1*vss'
.DCVOLT sn_24_10 '0*vdd + 1*vss'
.DCVOLT sn_24_11 '0*vdd + 1*vss'
.DCVOLT sn_24_12 '0*vdd + 1*vss'
.DCVOLT sn_24_13 '0*vdd + 1*vss'
.DCVOLT sn_24_14 '0*vdd + 1*vss'
.DCVOLT sn_24_15 '0*vdd + 1*vss'
.DCVOLT sn_24_16 '0*vdd + 1*vss'
.DCVOLT sn_24_17 '0*vdd + 1*vss'
.DCVOLT sn_24_18 '0*vdd + 1*vss'
.DCVOLT sn_24_19 '0*vdd + 1*vss'
.DCVOLT sn_24_20 '0*vdd + 1*vss'
.DCVOLT sn_24_21 '0*vdd + 1*vss'
.DCVOLT sn_24_22 '0*vdd + 1*vss'
.DCVOLT sn_24_23 '0*vdd + 1*vss'
.DCVOLT sn_24_24 '0*vdd + 1*vss'
.DCVOLT sn_24_25 '0*vdd + 1*vss'
.DCVOLT sn_24_26 '0*vdd + 1*vss'
.DCVOLT sn_24_27 '0*vdd + 1*vss'
.DCVOLT sn_24_28 '0*vdd + 1*vss'
.DCVOLT sn_24_29 '0*vdd + 1*vss'
.DCVOLT sn_24_30 '0*vdd + 1*vss'
.DCVOLT sn_24_31 '0*vdd + 1*vss'
.DCVOLT sn_25_0 '0*vdd + 1*vss'
.DCVOLT sn_25_1 '0*vdd + 1*vss'
.DCVOLT sn_25_2 '0*vdd + 1*vss'
.DCVOLT sn_25_3 '0*vdd + 1*vss'
.DCVOLT sn_25_4 '0*vdd + 1*vss'
.DCVOLT sn_25_5 '0*vdd + 1*vss'
.DCVOLT sn_25_6 '0*vdd + 1*vss'
.DCVOLT sn_25_7 '0*vdd + 1*vss'
.DCVOLT sn_25_8 '0*vdd + 1*vss'
.DCVOLT sn_25_9 '0*vdd + 1*vss'
.DCVOLT sn_25_10 '0*vdd + 1*vss'
.DCVOLT sn_25_11 '0*vdd + 1*vss'
.DCVOLT sn_25_12 '0*vdd + 1*vss'
.DCVOLT sn_25_13 '0*vdd + 1*vss'
.DCVOLT sn_25_14 '0*vdd + 1*vss'
.DCVOLT sn_25_15 '0*vdd + 1*vss'
.DCVOLT sn_25_16 '0*vdd + 1*vss'
.DCVOLT sn_25_17 '0*vdd + 1*vss'
.DCVOLT sn_25_18 '0*vdd + 1*vss'
.DCVOLT sn_25_19 '0*vdd + 1*vss'
.DCVOLT sn_25_20 '0*vdd + 1*vss'
.DCVOLT sn_25_21 '0*vdd + 1*vss'
.DCVOLT sn_25_22 '0*vdd + 1*vss'
.DCVOLT sn_25_23 '0*vdd + 1*vss'
.DCVOLT sn_25_24 '0*vdd + 1*vss'
.DCVOLT sn_25_25 '0*vdd + 1*vss'
.DCVOLT sn_25_26 '0*vdd + 1*vss'
.DCVOLT sn_25_27 '0*vdd + 1*vss'
.DCVOLT sn_25_28 '0*vdd + 1*vss'
.DCVOLT sn_25_29 '0*vdd + 1*vss'
.DCVOLT sn_25_30 '0*vdd + 1*vss'
.DCVOLT sn_25_31 '0*vdd + 1*vss'
.DCVOLT sn_26_0 '0*vdd + 1*vss'
.DCVOLT sn_26_1 '0*vdd + 1*vss'
.DCVOLT sn_26_2 '0*vdd + 1*vss'
.DCVOLT sn_26_3 '0*vdd + 1*vss'
.DCVOLT sn_26_4 '0*vdd + 1*vss'
.DCVOLT sn_26_5 '0*vdd + 1*vss'
.DCVOLT sn_26_6 '0*vdd + 1*vss'
.DCVOLT sn_26_7 '0*vdd + 1*vss'
.DCVOLT sn_26_8 '0*vdd + 1*vss'
.DCVOLT sn_26_9 '0*vdd + 1*vss'
.DCVOLT sn_26_10 '0*vdd + 1*vss'
.DCVOLT sn_26_11 '0*vdd + 1*vss'
.DCVOLT sn_26_12 '0*vdd + 1*vss'
.DCVOLT sn_26_13 '0*vdd + 1*vss'
.DCVOLT sn_26_14 '0*vdd + 1*vss'
.DCVOLT sn_26_15 '0*vdd + 1*vss'
.DCVOLT sn_26_16 '0*vdd + 1*vss'
.DCVOLT sn_26_17 '0*vdd + 1*vss'
.DCVOLT sn_26_18 '0*vdd + 1*vss'
.DCVOLT sn_26_19 '0*vdd + 1*vss'
.DCVOLT sn_26_20 '0*vdd + 1*vss'
.DCVOLT sn_26_21 '0*vdd + 1*vss'
.DCVOLT sn_26_22 '0*vdd + 1*vss'
.DCVOLT sn_26_23 '0*vdd + 1*vss'
.DCVOLT sn_26_24 '0*vdd + 1*vss'
.DCVOLT sn_26_25 '0*vdd + 1*vss'
.DCVOLT sn_26_26 '0*vdd + 1*vss'
.DCVOLT sn_26_27 '0*vdd + 1*vss'
.DCVOLT sn_26_28 '0*vdd + 1*vss'
.DCVOLT sn_26_29 '0*vdd + 1*vss'
.DCVOLT sn_26_30 '0*vdd + 1*vss'
.DCVOLT sn_26_31 '0*vdd + 1*vss'
.DCVOLT sn_27_0 '0*vdd + 1*vss'
.DCVOLT sn_27_1 '0*vdd + 1*vss'
.DCVOLT sn_27_2 '0*vdd + 1*vss'
.DCVOLT sn_27_3 '0*vdd + 1*vss'
.DCVOLT sn_27_4 '0*vdd + 1*vss'
.DCVOLT sn_27_5 '0*vdd + 1*vss'
.DCVOLT sn_27_6 '0*vdd + 1*vss'
.DCVOLT sn_27_7 '0*vdd + 1*vss'
.DCVOLT sn_27_8 '0*vdd + 1*vss'
.DCVOLT sn_27_9 '0*vdd + 1*vss'
.DCVOLT sn_27_10 '0*vdd + 1*vss'
.DCVOLT sn_27_11 '0*vdd + 1*vss'
.DCVOLT sn_27_12 '0*vdd + 1*vss'
.DCVOLT sn_27_13 '0*vdd + 1*vss'
.DCVOLT sn_27_14 '0*vdd + 1*vss'
.DCVOLT sn_27_15 '0*vdd + 1*vss'
.DCVOLT sn_27_16 '0*vdd + 1*vss'
.DCVOLT sn_27_17 '0*vdd + 1*vss'
.DCVOLT sn_27_18 '0*vdd + 1*vss'
.DCVOLT sn_27_19 '0*vdd + 1*vss'
.DCVOLT sn_27_20 '0*vdd + 1*vss'
.DCVOLT sn_27_21 '0*vdd + 1*vss'
.DCVOLT sn_27_22 '0*vdd + 1*vss'
.DCVOLT sn_27_23 '0*vdd + 1*vss'